[General]
**.routingRecorder.enabled = false

############### Statistics ##################
output-scalar-file = ${resultdir}/${configname}/${ue}-${scheduler}.sca
output-vector-file = ${resultdir}/${configname}/${ue}-${scheduler}.vec

**.scalar-recording = true
**.vector-recording = true

#**.meanBitLifeTimePerPacket*.vector-recording = true
#**.avgServedBlocksUl*.vector-recording = true
#**.packetReceived*.vector-recording = true
#**.packetSent*.vector-recording = true
#**.packetSent*.scalar-recording = true
#**.packetReceived*.scalar-recording = true



################ Mobility parameters #####################

**.mobility.constraintAreaMaxX = 1000m
**.mobility.constraintAreaMaxY = 1000m
**.mobility.constraintAreaMinX = 0m
**.mobility.constraintAreaMinY = 0m
**.mobility.constraintAreaMinZ = 0m
**.mobility.constraintAreaMaxZ = 0m
**.mobility.initFromDisplayString = false


*.numUe = ${ue=1,2,5,10,15,25,30,50,80}

**.mac.schedulingDiscipline* = ${scheduler="QOS_PF", "LYAPUNOV_SCHEDULER"}#, "PF", "ALLOCATOR_BESTFIT", "MAXCI_COMP", "MAXCI"

 
############### Transmission Power ##################
**.ueTxPower = 23dBm
**.eNodeBTxPower = 24dBm
**.targetBler = 0.01
**.blerShift = 5

############### IPv4 configurator config #################
*.configurator.config = xmldoc("./demo.xml")


############## Component carrier
*.carrierAggregation.numComponentCarriers = 1
*.carrierAggregation.componentCarrier[0].numBands = 51 #Number of Resource Blocks - equal to the number of RBs -
#Ref : 20 MHz Channel Bandwidth : 51, 40 MHz Channel Bandwidth: 106 - All with Sub-carrier spacing (kHz) 30 (Numerology 1)
*.carrierAggregation.componentCarrier[0].numerologyIndex = 1
*.carrierAggregation.componentCarrier[0].carrierFrequency = 5.9GHz ##5.9


**.mac.lyAlpha = 1.5 #1.5
**.mac.lyBeta = 1.2 #1.2


**.dynamic_los= true
#------------------------------------#
# Config Standalone
#
# Topology configuration for the exemplary scenario for NR Standalone deployment
#
[Config Standalone]
network = simu5g.simulations.nr.networks.SingleCell_Standalone_Drb
sim-time-limit=100s
warmup-period = 20s


############### e/gNodeB configuration #################
*.gnb.mobility.initialX = 450m
*.gnb.mobility.initialY = 300m
*.gnb.cellularNic.sdap.qfiContextFile = "qfi_drb_mapping_config.txt"
*.gnb.cellularNic.numDrbs = 7
*.gnb.cellularNic.mac.amcType = "NrAmc"


*.ue[*].cellularNic.sdap.qfiContextFile = "qfi_drb_mapping_config.txt"
*.ue[*].cellularNic.numDrbs = 7



# connect the UE's NIC to the corresponding serving gNB (NR side only)
*.ue[*].macCellId = 0
*.ue[*].masterId = 0
*.ue[*].nrMacCellId = 1
*.ue[*].nrMasterId = 1

# UE position

# --- Random Waypoint Mobility Configuration ---
*.ue[0].mobility.initialX = 397.40m
*.ue[0].mobility.initialY = 369.50m

*.ue[1].mobility.initialX = 432.11m
*.ue[1].mobility.initialY = 213.17m

*.ue[2].mobility.initialX = 509.88m
*.ue[2].mobility.initialY = 243.95m

*.ue[3].mobility.initialX = 458.83m
*.ue[3].mobility.initialY = 211.01m

*.ue[4].mobility.initialX = 366.81m
*.ue[4].mobility.initialY = 329.56m

*.ue[5].mobility.initialX = 423.43m
*.ue[5].mobility.initialY = 383.00m

*.ue[6].mobility.initialX = 397.45m
*.ue[6].mobility.initialY = 363.14m

*.ue[7].mobility.initialX = 367.96m
*.ue[7].mobility.initialY = 269.95m

*.ue[8].mobility.initialX = 519.28m
*.ue[8].mobility.initialY = 355.91m

*.ue[9].mobility.initialX = 535.50m
*.ue[9].mobility.initialY = 296.03m

*.ue[10].mobility.initialX = 516.00m
*.ue[10].mobility.initialY = 354.56m

*.ue[11].mobility.initialX = 471.25m
*.ue[11].mobility.initialY = 215.51m

*.ue[12].mobility.initialX = 431.15m
*.ue[12].mobility.initialY = 381.46m

*.ue[13].mobility.initialX = 365.28m
*.ue[13].mobility.initialY = 308.24m

*.ue[14].mobility.initialX = 504.81m
*.ue[14].mobility.initialY = 239.52m

*.ue[15].mobility.initialX = 394.03m
*.ue[15].mobility.initialY = 240.37m

*.ue[16].mobility.initialX = 379.14m
*.ue[16].mobility.initialY = 247.26m

*.ue[17].mobility.initialX = 425.24m
*.ue[17].mobility.initialY = 377.85m

*.ue[18].mobility.initialX = 531.65m
*.ue[18].mobility.initialY = 313.77m

*.ue[19].mobility.initialX = 443.54m
*.ue[19].mobility.initialY = 211.49m

*.ue[20].mobility.initialX = 385.33m
*.ue[20].mobility.initialY = 348.18m

*.ue[21].mobility.initialX = 367.49m
*.ue[21].mobility.initialY = 323.46m

*.ue[22].mobility.initialX = 531.01m
*.ue[22].mobility.initialY = 269.65m

*.ue[23].mobility.initialX = 386.40m
*.ue[23].mobility.initialY = 354.97m

*.ue[24].mobility.initialX = 418.00m
*.ue[24].mobility.initialY = 218.21m

*.ue[25].mobility.initialX = 480.32m
*.ue[25].mobility.initialY = 223.65m

*.ue[26].mobility.initialX = 474.24m
*.ue[26].mobility.initialY = 217.22m

*.ue[27].mobility.initialX = 388.61m
*.ue[27].mobility.initialY = 354.12m

*.ue[28].mobility.initialX = 476.42m
*.ue[28].mobility.initialY = 220.90m

*.ue[29].mobility.initialX = 514.53m
*.ue[29].mobility.initialY = 249.80m

*.ue[30].mobility.initialX = 363.61m
*.ue[30].mobility.initialY = 282.51m

*.ue[31].mobility.initialX = 479.93m
*.ue[31].mobility.initialY = 376.55m

*.ue[32].mobility.initialX = 372.15m
*.ue[32].mobility.initialY = 335.99m

*.ue[33].mobility.initialX = 479.86m
*.ue[33].mobility.initialY = 216.06m

*.ue[34].mobility.initialX = 467.18m
*.ue[34].mobility.initialY = 378.61m

*.ue[35].mobility.initialX = 392.15m
*.ue[35].mobility.initialY = 239.54m

*.ue[36].mobility.initialX = 370.68m
*.ue[36].mobility.initialY = 311.08m

*.ue[37].mobility.initialX = 381.45m
*.ue[37].mobility.initialY = 252.50m

*.ue[38].mobility.initialX = 489.24m
*.ue[38].mobility.initialY = 226.50m

*.ue[39].mobility.initialX = 501.94m
*.ue[39].mobility.initialY = 363.97m

*.ue[40].mobility.initialX = 533.16m
*.ue[40].mobility.initialY = 331.81m

*.ue[41].mobility.initialX = 449.64m
*.ue[41].mobility.initialY = 211.05m

*.ue[42].mobility.initialX = 376.20m
*.ue[42].mobility.initialY = 334.28m

*.ue[43].mobility.initialX = 522.13m
*.ue[43].mobility.initialY = 345.82m

*.ue[44].mobility.initialX = 361.49m
*.ue[44].mobility.initialY = 295.00m

*.ue[45].mobility.initialX = 505.27m
*.ue[45].mobility.initialY = 241.01m

*.ue[46].mobility.initialX = 475.81m
*.ue[46].mobility.initialY = 379.66m

*.ue[47].mobility.initialX = 364.67m
*.ue[47].mobility.initialY = 282.19m

*.ue[48].mobility.initialX = 416.13m
*.ue[48].mobility.initialY = 221.17m

*.ue[49].mobility.initialX = 454.27m
*.ue[49].mobility.initialY = 218.25m

*.ue[50].mobility.initialX = 435.75m
*.ue[50].mobility.initialY = 387.11m

*.ue[51].mobility.initialX = 387.47m
*.ue[51].mobility.initialY = 241.16m

*.ue[52].mobility.initialX = 498.89m
*.ue[52].mobility.initialY = 234.43m

*.ue[53].mobility.initialX = 511.32m
*.ue[53].mobility.initialY = 242.41m

*.ue[54].mobility.initialX = 385.33m
*.ue[54].mobility.initialY = 237.93m

*.ue[55].mobility.initialX = 408.94m
*.ue[55].mobility.initialY = 223.36m

*.ue[56].mobility.initialX = 422.76m
*.ue[56].mobility.initialY = 224.14m

*.ue[57].mobility.initialX = 378.10m
*.ue[57].mobility.initialY = 344.27m

*.ue[58].mobility.initialX = 380.87m
*.ue[58].mobility.initialY = 355.97m

*.ue[59].mobility.initialX = 379.65m
*.ue[59].mobility.initialY = 251.44m

*.ue[60].mobility.initialX = 419.86m
*.ue[60].mobility.initialY = 219.49m

*.ue[61].mobility.initialX = 521.42m
*.ue[61].mobility.initialY = 253.72m

*.ue[62].mobility.initialX = 475.83m
*.ue[62].mobility.initialY = 380.45m

*.ue[63].mobility.initialX = 373.27m
*.ue[63].mobility.initialY = 345.50m

*.ue[64].mobility.initialX = 516.59m
*.ue[64].mobility.initialY = 240.58m

*.ue[65].mobility.initialX = 523.58m
*.ue[65].mobility.initialY = 344.26m

*.ue[66].mobility.initialX = 521.78m
*.ue[66].mobility.initialY = 254.08m

*.ue[67].mobility.initialX = 500.30m
*.ue[67].mobility.initialY = 370.17m

*.ue[68].mobility.initialX = 525.55m
*.ue[68].mobility.initialY = 330.23m

*.ue[69].mobility.initialX = 504.63m
*.ue[69].mobility.initialY = 363.14m

*.ue[70].mobility.initialX = 527.66m
*.ue[70].mobility.initialY = 323.29m

*.ue[71].mobility.initialX = 405.02m
*.ue[71].mobility.initialY = 367.37m

*.ue[72].mobility.initialX = 502.83m
*.ue[72].mobility.initialY = 367.52m

*.ue[73].mobility.initialX = 530.91m
*.ue[73].mobility.initialY = 330.73m

*.ue[74].mobility.initialX = 520.34m
*.ue[74].mobility.initialY = 248.48m

*.ue[75].mobility.initialX = 400.11m
*.ue[75].mobility.initialY = 228.10m

*.ue[76].mobility.initialX = 486.95m
*.ue[76].mobility.initialY = 379.05m

*.ue[77].mobility.initialX = 527.15m
*.ue[77].mobility.initialY = 256.55m

*.ue[78].mobility.initialX = 368.70m
*.ue[78].mobility.initialY = 264.54m

*.ue[79].mobility.initialX = 499.22m
*.ue[79].mobility.initialY = 375.28m




#------------------------------------#
# Buffer size - 200KB
#*.ue[*].cellularNic.nrRlc[*].**.queueSize=204800B
#*.ue[*].cellularNic.nrMac.queueSize = 204800B
*.ue[*].cellularNic.nrMac.queueSize = 20480B
#*.ue[*].cellularNic.rlc.*.queueSize = 204800B
#*.ue[*].cellularNic.mac.queueSize=204800B
*.ue[*].cellularNic.mac.queueSize=20480B

#*.gnb.cellularNic.nrRlc[*].**.queueSize=204800B
#*.gnb.cellularNic.nrMac.queueSize = 204800B
*.gnb.cellularNic.nrMac.queueSize = 20480B
#*.gnb.cellularNic.rlc.*.queueSize = 204800B
#*.gnb.cellularNic.mac.queueSize=204800B
*.gnb.cellularNic.mac.queueSize=20480B




#------------------------------------#
# Config VoIP-DL
#
# General configuration for Voice-over-IP DL traffic to the UE
#
[Config UDP-DL]
extends=Standalone

# multiple UDP applications for each UE
*.ue[*].numApps = 3

# the amount of UDP applications on server should be equal to (numUEs)*(ue[*].numApps)
*.server.numApps = 3

#============= Application Setup =============
*.ue[*].app[*].typename = "UdpSinkApp"

# Configure each sink to listen on its designated port.
*.ue[*].app[0].display-name = "vehicle control "
*.ue[*].app[0].io.localPort = 1000

*.ue[*].app[1].display-name = "video"
*.ue[*].app[1].io.localPort = 1001

*.ue[*].app[2].display-name = "best effort"
*.ue[*].app[2].io.localPort = 1002


#============= Server Setup (Sender) =============
# The server has three source applications, one for each traffic type.
*.server.app[*].typename = "UdpSourceApp"

# --- Server App 0: Vehicle Control ---
*.server.app[0].display-name = "vehicle control"
*.server.app[0].io.destAddress = "ue[0]"  # Sends traffic to all UEs
*.server.app[0].io.destPort = 1000
*.server.app[0].source.packetLength = 150B
*.server.app[0].source.productionInterval = intuniform(44ms, 45ms)
*.server.app[0].source.qfi = 3

# --- Server App 1: Video ---
*.server.app[1].display-name = "video source"
*.server.app[1].io.destAddress = "ue[0]"
*.server.app[1].io.destPort = 1001
*.server.app[1].source.packetLength = int(200B + bernoulli(0.05) * 1000B)
*.server.app[1].source.productionInterval = 33.3ms
*.server.app[1].source.qfi = 5

# --- Server App 2: Best Effort ---
*.server.app[2].display-name = "BestEffort source"
*.server.app[2].io.destAddress = "ue[0]"
*.server.app[2].io.destPort = 1002
*.server.app[2].source.packetLength = int(64B + bernoulli(0.3) * 1386B)
*.server.app[2].source.productionInterval = pareto_shifted(1.2, 12ms, 1ms)
*.server.app[2].source.qfi = 7

# --- Common Timing for Server Apps ---
*.server.app[*].startTime = uniform(0s,0.02s)
*.server.app[*].source.initialProductionOffset = uniform(0ms, 5ms)

#------------------------------------#



#------------------------------------#
# Config VoIP-UL
#
# General configuration for Voice-over-IP UL traffic from the UE
#
[Config UDP-UL]
extends=Standalone


**.uplink_interference = true
############## Scheduler configuration ##################

# multiple UDP applications for each UE
*.ue[*].numApps = 3

# the amount of UDP applications on server should be equal to (numUEs)*(ue[*].numApps)
*.server.numApps = 3

#============= Application Setup =============
*.server.app[*].typename = "UdpSinkApp"
*.server.app[0].display-name = "vehicle control"
*.server.app[0].io.localPort = 1000
*.server.app[1].display-name = "video"
*.server.app[1].io.localPort = 1001
*.server.app[2].display-name = "best effort"
*.server.app[2].io.localPort = 1002

*.ue[*].app[0].typename = "UdpSourceApp"
*.ue[*].app[0].display-name = "vehicle control"
*.ue[*].app[0].io.destAddress = "server"
*.ue[*].app[0].io.destPort = 1000
*.ue[*].app[0].source.packetLength = 150B
*.ue[*].app[0].source.productionInterval = intuniform(44ms, 45ms)



*.ue[*].app[1].typename = "UdpSourceApp"
*.ue[*].app[1].display-name = "video"
*.ue[*].app[1].io.destAddress = "server"
*.ue[*].app[1].io.destPort = 1001
# --- 30 FPS Video Stream---
# This expression creates a bimodal distribution:
# - 95% of packets will be 200B (small P/B-frames)
# - 5% of packets will be 1200B (large I-frames)
#*.ue[*].app[1].source.packetLength = int(200B + bernoulli(0.05) * 1000B)
#*.ue[*].app[1].source.packetLength = int(200B + bernoulli(0.05) * 1000B)
# Packet interval is fixed to match a 30 FPS camera
*.ue[*].app[1].source.productionInterval = 33.333ms

##Prof.Cormac values
# --- target: 4 Mb/s per AGV  at ~30 fps ---
# (5% ⇒ 0.05 * 30fps = 1.5 I-frames/sec → satisfies "not less than 1/sec")
*.ue[*].app[1].source.packetLength =
    (bernoulli(0.05) == 1) ? int(uniform(50000B, 60000B)) : int(truncnormal(14385B, 2000B))



# --- 60 FPS Video Stream (using intuniform) ---
# Packet interval is fixed to match a 60 FPS camera (1s / 60)
#*.ue[*].app[1].source.productionInterval = 16.7ms
#*.ue[*].app[1].source.packetLength = intuniform(150B, 1450B)


# Packet size is a random integer between 200 and 1450 bytes.
# Covers P/B-frames and larger I-frames.
#*.ue[*].app[1].source.packetLength = intuniform(200, 1450)*1B
##########

*.ue[*].app[2].typename = "UdpSourceApp"
*.ue[*].app[2].display-name = "BestEffort"
*.ue[*].app[2].io.destAddress = "server"
*.ue[*].app[2].io.destPort = 1002
*.ue[*].app[2].source.packetLength = int(64B + bernoulli(0.3) * 1386B)
*.ue[*].app[2].source.productionInterval = pareto_shifted(1.2, 50ms, 20ms)



*.ue[*].app[0].source.qfi = 4
*.ue[*].app[1].source.qfi = 5
*.ue[*].app[2].source.qfi = 7

*.ue[*].app[*].source.initialProductionOffset = uniform(0s, 2s)
*.ue[*].app[*].startTime = uniform(0s,0.05s)     